<?xml version="1.0" encoding="UTF-8"?>

<nodes>
    <node id="A" x="0.0" y="0.0"/>
    <node id="B" x="3000.0" y="0.0"/>
</nodes>