<?xml version="1.0" encoding="UTF-8"?>

<!-- generated on 2026-07-03T11:42:44.614216+05:30 by Eclipse SUMO netconvert 1.27.1
<netconvertConfiguration xmlns:xsi="http://www.w3.org/2001/XMLSchema-instance" xsi:noNamespaceSchemaLocation="http://sumo.dlr.de/xsd/netconvertConfiguration.xsd">

    <input>
        <node-files value="nodes.nod.xml"/>
        <edge-files value="edges.edg.xml"/>
    </input>

    <output>
        <output-file value="road.net.xml"/>
    </output>

    <junctions>
        <no-turnarounds value="true"/>
    </junctions>

</netconvertConfiguration>
-->

<net version="1.20" junctionCornerDetail="5" limitTurnSpeed="5.50" xmlns:xsi="http://www.w3.org/2001/XMLSchema-instance" xsi:noNamespaceSchemaLocation="http://sumo.dlr.de/xsd/net_file.xsd">

    <location netOffset="0.00,0.00" convBoundary="0.00,0.00,3000.00,0.00" origBoundary="0.00,0.00,3000.00,0.00" projParameter="!"/>

    <edge id="AB" from="A" to="B" priority="1">
        <lane id="AB_0" index="0" speed="20.00" length="3000.00" shape="0.00,-4.80 3000.00,-4.80"/>
        <lane id="AB_1" index="1" speed="20.00" length="3000.00" shape="0.00,-1.60 3000.00,-1.60"/>
    </edge>
    <edge id="BA" from="B" to="A" priority="1">
        <lane id="BA_0" index="0" speed="20.00" length="3000.00" shape="3000.00,4.80 0.00,4.80"/>
        <lane id="BA_1" index="1" speed="20.00" length="3000.00" shape="3000.00,1.60 0.00,1.60"/>
    </edge>

    <junction id="A" type="dead_end" x="0.00" y="0.00" incLanes="BA_0 BA_1" intLanes="" shape="0.00,0.00 0.00,6.40 0.00,0.00"/>
    <junction id="B" type="dead_end" x="3000.00" y="0.00" incLanes="AB_0 AB_1" intLanes="" shape="3000.00,0.00 3000.00,-6.40 3000.00,0.00"/>

</net>
